************************************************************************
* auCdl Netlist:
* 
* Library Name:  ChaCha20
* Top Cell Name: Array128_4
* View Name:     schematic
* Netlisted on:  Jan 17 15:13:47 2021
************************************************************************

*.BIPOLAR
*.RESI = 2000 
*.RESVAL
*.CAPVAL
*.DIOPERI
*.DIOAREA
*.EQUATION
*.SCALE METER
*.MEGA
.PARAM



************************************************************************
* Library Name: SRAM_cell_10T
* Cell Name:    sram_10t
* View Name:    schematic
************************************************************************

.SUBCKT sram_10t RBL RBLB RWL RWLB WBL WBLB gnd latch latch_bar vdd wl
*.PININFO RWL:I RWLB:I WBL:I WBLB:I gnd:I vdd:I wl:I latch:O latch_bar:O RBL:B 
*.PININFO RBLB:B
XM1 latch_bar latch vdd vdd plvtlp w=0.135 l=0.09 nfing=1 sense=0 ngcon=1 m=1 
+ accurateFlow=0
XM2 latch latch_bar vdd vdd plvtlp w=0.135 l=0.09 nfing=1 sense=0 ngcon=1 m=1 
+ accurateFlow=0
XM10 net35 latch gnd gnd nlvtlp w=0.41 l=0.09 nfing=1 sense=0 ngcon=1 m=1 
+ accurateFlow=0
XM9 RBLB RWLB net35 net35 nlvtlp w=0.41 l=0.09 nfing=1 sense=0 ngcon=1 m=1 
+ accurateFlow=0
XM8 net36 latch_bar gnd gnd nlvtlp w=0.41 l=0.09 nfing=1 sense=0 ngcon=1 m=1 
+ accurateFlow=0
XM7 RBL RWL net36 net36 nlvtlp w=0.41 l=0.09 nfing=1 sense=0 ngcon=1 m=1 
+ accurateFlow=0
XM5 WBLB wl latch_bar latch_bar nlvtlp w=0.27 l=0.09 nfing=1 sense=0 ngcon=1 
+ m=1 accurateFlow=0
XM4 latch wl WBL WBL nlvtlp w=0.27 l=0.09 nfing=1 sense=0 ngcon=1 m=1 
+ accurateFlow=0
XM3 latch_bar latch gnd gnd nlvtlp w=0.405 l=0.09 nfing=1 sense=0 ngcon=1 m=1 
+ accurateFlow=0
XM6 latch latch_bar gnd gnd nlvtlp w=0.405 l=0.09 nfing=1 sense=0 ngcon=1 m=1 
+ accurateFlow=0
.ENDS

************************************************************************
* Library Name: framework
* Cell Name:    inv
* View Name:    schematic
************************************************************************

.SUBCKT inv IN INBar Vdd gnd
*.PININFO IN:I Vdd:I gnd:I INBar:O
XM0 INBar IN Vdd Vdd plvtlp w=0.81 l=0.06 nfing=1 sense=0 ngcon=1 m=1 
+ accurateFlow=0
XM1 INBar IN gnd gnd nlvtlp w=0.405 l=0.06 nfing=1 sense=0 ngcon=1 m=1 
+ accurateFlow=0
.ENDS

************************************************************************
* Library Name: framework
* Cell Name:    write_driver1
* View Name:    schematic
************************************************************************

.SUBCKT write_driver1 OUT OUTB Vdd data gnd w_en
*.PININFO Vdd:I data:I gnd:I w_en:I OUT:O OUTB:O
XM1 OUT w_en net06 net06 nlvtlp w=1.03 l=0.06 nfing=1 sense=0 ngcon=1 m=1 
+ accurateFlow=0
XM0 OUTB w_en net12 net12 nlvtlp w=1.03 l=0.06 nfing=1 sense=0 ngcon=1 m=1 
+ accurateFlow=0
XI2 net12 net06 Vdd gnd inv
XI1 data net12 Vdd gnd inv
.ENDS

************************************************************************
* Library Name: framework
* Cell Name:    mux4_1_test
* View Name:    schematic
************************************************************************

.SUBCKT mux4_1_test A0 A1 A2 IN00 IN01 IN10 IN11 IN_compute OE01 OE10 OE11 Out 
+ Vdd gnd
*.PININFO A0:I A1:I A2:I IN00:I IN01:I IN10:I IN11:I IN_compute:I OE01:I 
*.PININFO OE10:I OE11:I Vdd:I gnd:I Out:O
XM29 net074 A2 OE01 gnd nlvtlp w=0.405 l=0.06 nfing=1 sense=0 ngcon=1 m=1 
+ accurateFlow=0
XM25 net076 A2 IN10 gnd nlvtlp w=0.405 l=0.06 nfing=1 sense=0 ngcon=1 m=1 
+ accurateFlow=0
XM22 net078 A2bar IN_compute gnd nlvtlp w=0.405 l=0.06 nfing=1 sense=0 ngcon=1 
+ m=1 accurateFlow=0
XM40 A2bar A2 gnd gnd nlvtlp w=0.4 l=0.06 nfing=1 sense=0 ngcon=1 m=1 
+ accurateFlow=0
XM27 net072 A2 OE11 gnd nlvtlp w=0.405 l=0.06 nfing=1 sense=0 ngcon=1 m=1 
+ accurateFlow=0
XM38 A0bar A0 gnd gnd nlvtlp w=0.4 l=0.06 nfing=1 sense=0 ngcon=1 m=1 
+ accurateFlow=0
XM37 Out A0bar net090 gnd nlvtlp w=0.405 l=0.06 nfing=1 sense=0 ngcon=1 m=1 
+ accurateFlow=0
XM35 Out A0 net088 gnd nlvtlp w=0.405 l=0.06 nfing=1 sense=0 ngcon=1 m=1 
+ accurateFlow=0
XM34 net090 A1bar net078 gnd nlvtlp w=0.405 l=0.06 nfing=1 sense=0 ngcon=1 m=1 
+ accurateFlow=0
XM33 net090 A1 net076 gnd nlvtlp w=0.405 l=0.06 nfing=1 sense=0 ngcon=1 m=1 
+ accurateFlow=0
XM32 net088 A1 net072 gnd nlvtlp w=0.405 l=0.06 nfing=1 sense=0 ngcon=1 m=1 
+ accurateFlow=0
XM31 net088 A1bar net074 gnd nlvtlp w=0.405 l=0.06 nfing=1 sense=0 ngcon=1 m=1 
+ accurateFlow=0
XM18 A1bar A1 gnd gnd nlvtlp w=0.4 l=0.06 nfing=1 sense=0 ngcon=1 m=1 
+ accurateFlow=0
XM24 net078 A2 IN00 gnd nlvtlp w=0.405 l=0.06 nfing=1 sense=0 ngcon=1 m=1 
+ accurateFlow=0
XM26 net076 A2bar IN01 gnd nlvtlp w=0.405 l=0.06 nfing=1 sense=0 ngcon=1 m=1 
+ accurateFlow=0
XM30 net074 A2bar IN11 gnd nlvtlp w=0.405 l=0.06 nfing=1 sense=0 ngcon=1 m=1 
+ accurateFlow=0
XM28 net072 A2bar OE10 gnd nlvtlp w=0.405 l=0.06 nfing=1 sense=0 ngcon=1 m=1 
+ accurateFlow=0
XM41 A2bar A2 Vdd Vdd plvtlp w=0.81 l=0.06 nfing=1 sense=0 ngcon=1 m=1 
+ accurateFlow=0
XM36 net090 A0 Out Vdd plvtlp w=0.81 l=0.06 nfing=1 sense=0 ngcon=1 m=1 
+ accurateFlow=0
XM19 net088 A0bar Out Vdd plvtlp w=0.81 l=0.06 nfing=1 sense=0 ngcon=1 m=1 
+ accurateFlow=0
XM17 net078 A1 net090 Vdd plvtlp w=0.81 l=0.06 nfing=1 sense=0 ngcon=1 m=1 
+ accurateFlow=0
XM16 net076 A1bar net090 Vdd plvtlp w=0.81 l=0.06 nfing=1 sense=0 ngcon=1 m=1 
+ accurateFlow=0
XM15 net072 A1bar net088 Vdd plvtlp w=0.81 l=0.06 nfing=1 sense=0 ngcon=1 m=1 
+ accurateFlow=0
XM14 net074 A1 net088 Vdd plvtlp w=0.81 l=0.06 nfing=1 sense=0 ngcon=1 m=1 
+ accurateFlow=0
XM13 IN11 A2 net074 Vdd plvtlp w=0.81 l=0.06 nfing=1 sense=0 ngcon=1 m=1 
+ accurateFlow=0
XM5 A1bar A1 Vdd Vdd plvtlp w=0.81 l=0.06 nfing=1 sense=0 ngcon=1 m=1 
+ accurateFlow=0
XM7 IN00 A2bar net078 Vdd plvtlp w=0.81 l=0.06 nfing=1 sense=0 ngcon=1 m=1 
+ accurateFlow=0
XM23 IN_compute A2 net078 Vdd plvtlp w=0.81 l=0.06 nfing=1 sense=0 ngcon=1 m=1 
+ accurateFlow=0
XM9 IN01 A2 net076 Vdd plvtlp w=0.81 l=0.06 nfing=1 sense=0 ngcon=1 m=1 
+ accurateFlow=0
XM10 OE11 A2bar net072 Vdd plvtlp w=0.81 l=0.06 nfing=1 sense=0 ngcon=1 m=1 
+ accurateFlow=0
XM11 OE10 A2 net072 Vdd plvtlp w=0.81 l=0.06 nfing=1 sense=0 ngcon=1 m=1 
+ accurateFlow=0
XM39 A0bar A0 Vdd Vdd plvtlp w=0.81 l=0.06 nfing=1 sense=0 ngcon=1 m=1 
+ accurateFlow=0
XM8 IN10 A2bar net076 Vdd plvtlp w=0.81 l=0.06 nfing=1 sense=0 ngcon=1 m=1 
+ accurateFlow=0
XM12 OE01 A2bar net074 Vdd plvtlp w=0.81 l=0.06 nfing=1 sense=0 ngcon=1 m=1 
+ accurateFlow=0
CC6 IN01 gnd 2f
CC7 IN10 gnd 2f
CC8 OE11 gnd 2f
CC9 OE10 gnd 2f
CC10 OE01 gnd 2f
CC11 IN11 gnd 2f
CC3 IN00 gnd 2f
CC5 IN_compute gnd 2f
.ENDS

************************************************************************
* Library Name: Single_Ended_Sense_Amplifier
* Cell Name:    NOT
* View Name:    schematic
************************************************************************

.SUBCKT NOT Vdd Vin Vout gnd
*.PININFO Vdd:I Vin:I gnd:I Vout:O
XM7 Vout Vin gnd gnd nlvtlp w=0.4 l=0.06 nfing=1 sense=0 ngcon=1 m=1 
+ accurateFlow=0
XM6 Vout Vin Vdd Vdd plvtlp w=0.81 l=0.06 nfing=1 sense=0 ngcon=1 m=1 
+ accurateFlow=0
.ENDS

************************************************************************
* Library Name: Carry_Select_Adder
* Cell Name:    MUX2_1_Real
* View Name:    schematic
************************************************************************

.SUBCKT MUX2_1_Real A0 A1 S Vdd Vout gnd
*.PININFO A0:I A1:I S:I Vdd:I gnd:I Vout:O
XM5 net19 S gnd gnd nlvtlp w=0.4 l=0.06 nfing=1 sense=0 ngcon=1 m=1 
+ accurateFlow=0
XM1 A0 net19 Vout Vout nlvtlp w=0.4 l=0.06 nfing=1 sense=0 ngcon=1 m=1 
+ accurateFlow=0
XM4 A1 S Vout Vout nlvtlp w=0.4 l=0.06 nfing=1 sense=0 ngcon=1 m=1 
+ accurateFlow=0
XM2 net19 S Vdd Vdd plvtlp w=0.81 l=0.06 nfing=1 sense=0 ngcon=1 m=1 
+ accurateFlow=0
XM3 Vout S A0 A0 plvtlp w=0.81 l=0.06 nfing=1 sense=0 ngcon=1 m=1 
+ accurateFlow=0
XM0 Vout net19 A1 A1 plvtlp w=0.81 l=0.06 nfing=1 sense=0 ngcon=1 m=1 
+ accurateFlow=0
CC4 A0 gnd 500.0a
CC3 S gnd 500.0a
CC0 A1 gnd 500.0a
.ENDS

************************************************************************
* Library Name: Sense_amp_inverter
* Cell Name:    inverter_wLATCH
* View Name:    schematic
************************************************************************

.SUBCKT inverter_wLATCH BL SAen Vdd Vout gnd
*.PININFO BL:I SAen:I Vdd:I gnd:I Vout:O
XI15 Vdd Vout net07 gnd NOT
XI8 Vdd net08 Vout gnd NOT
XI18 net07 net06 SAen Vdd net08 gnd MUX2_1_Real
XM3 net06 BL Vdd Vdd plvtlp w=1.35 l=0.06 nfing=1 sense=0 ngcon=1 m=1 
+ accurateFlow=0
XM2 net06 BL gnd gnd nhvtlp w=0.135 l=0.06 nfing=1 sense=0 ngcon=1 m=1 
+ accurateFlow=0
.ENDS

************************************************************************
* Library Name: ChaCha20
* Cell Name:    NOT_schematic
* View Name:    schematic
************************************************************************

.SUBCKT NOT_schematic Vdd Vin Vout gnd
*.PININFO Vdd:I Vin:I gnd:I Vout:O
XM7 Vout Vin gnd gnd nlvtlp w=0.27 l=0.06 nfing=1 sense=0 ngcon=1 m=1 
+ accurateFlow=0
XM6 Vout Vin Vdd Vdd plvtlp w=0.81 l=0.06 nfing=1 sense=0 ngcon=1 m=1 
+ accurateFlow=0
.ENDS

************************************************************************
* Library Name: framework
* Cell Name:    decoder2_4_chota_2
* View Name:    schematic
************************************************************************

.SUBCKT decoder2_4_chota_2 A0 A1 EN Vdd WL0 WL1 WL2 WL3 clk gnd
*.PININFO A0:I A1:I EN:I Vdd:I clk:I gnd:I WL0:O WL1:O WL2:O WL3:O
XM28 net029 A1 gnd gnd nlvtlp w=0.27 l=0.06 nfing=1 sense=0 ngcon=1 m=1 
+ accurateFlow=0
XM24 net022 EN gnd gnd nlvtlp w=0.54 l=0.06 nfing=1 sense=0 ngcon=1 m=1 
+ accurateFlow=0
XM25 net039 EN gnd gnd nlvtlp w=0.54 l=0.06 nfing=1 sense=0 ngcon=1 m=1 
+ accurateFlow=0
XM29 net010 A0 gnd gnd nlvtlp w=0.27 l=0.06 nfing=1 sense=0 ngcon=1 m=1 
+ accurateFlow=0
XM26 net040 EN gnd gnd nlvtlp w=0.54 l=0.06 nfing=1 sense=0 ngcon=1 m=1 
+ accurateFlow=0
XM27 net020 EN gnd gnd nlvtlp w=0.54 l=0.06 nfing=1 sense=0 ngcon=1 m=1 
+ accurateFlow=0
XM30 net043 clk gnd gnd nlvtlp w=0.27 l=0.06 nfing=1 sense=0 ngcon=1 m=1 
+ accurateFlow=0
XM15 net023 A1 net30 net30 nlvtlp w=0.54 l=0.06 nfing=1 sense=0 ngcon=1 m=1 
+ accurateFlow=0
XM14 net18 A0 net039 net039 nlvtlp w=0.54 l=0.06 nfing=1 sense=0 ngcon=1 m=1 
+ accurateFlow=0
XM13 net035 net029 net019 net019 nlvtlp w=0.54 l=0.06 nfing=1 sense=0 ngcon=1 
+ m=1 accurateFlow=0
XM12 net019 net010 net022 net022 nlvtlp w=0.54 l=0.06 nfing=1 sense=0 ngcon=1 
+ m=1 accurateFlow=0
XM3 net42 net029 net18 net18 nlvtlp w=0.54 l=0.06 nfing=1 sense=0 ngcon=1 m=1 
+ accurateFlow=0
XM2 net30 net010 net020 net020 nlvtlp w=0.54 l=0.06 nfing=1 sense=0 ngcon=1 
+ m=1 accurateFlow=0
XM1 net021 A1 net20 net20 nlvtlp w=0.54 l=0.06 nfing=1 sense=0 ngcon=1 m=1 
+ accurateFlow=0
XM0 net20 A0 net040 net040 nlvtlp w=0.54 l=0.06 nfing=1 sense=0 ngcon=1 m=1 
+ accurateFlow=0
XM9 net029 A1 Vdd Vdd plvtlp w=0.54 l=0.06 nfing=1 sense=0 ngcon=1 m=1 
+ accurateFlow=0
XM31 net043 clk Vdd Vdd plvtlp w=0.54 l=0.06 nfing=1 sense=0 ngcon=1 m=1 
+ accurateFlow=0
XM10 net010 A0 Vdd Vdd plvtlp w=0.54 l=0.06 nfing=1 sense=0 ngcon=1 m=1 
+ accurateFlow=0
XM11 Vdd net043 net021 net021 plvtlp w=0.81 l=0.06 nfing=1 sense=0 ngcon=1 m=1 
+ accurateFlow=0
XM6 Vdd net043 net035 net035 plvtlp w=0.81 l=0.06 nfing=1 sense=0 ngcon=1 m=1 
+ accurateFlow=0
XM4 Vdd net043 net023 net023 plvtlp w=0.81 l=0.06 nfing=1 sense=0 ngcon=1 m=1 
+ accurateFlow=0
XM5 Vdd net043 net42 net42 plvtlp w=0.81 l=0.06 nfing=1 sense=0 ngcon=1 m=1 
+ accurateFlow=0
XI14 Vdd net021 WL3 gnd NOT_schematic
XI13 Vdd net023 WL2 gnd NOT_schematic
XI12 Vdd net42 WL1 gnd NOT_schematic
XI11 Vdd net035 WL0 gnd NOT_schematic
.ENDS

************************************************************************
* Library Name: In_Memory_Add
* Cell Name:    nor
* View Name:    schematic
************************************************************************

.SUBCKT nor A B Out Vdd gnd
*.PININFO A:I B:I Vdd:I gnd:I Out:O
XM3 Out B gnd gnd nlvtlp w=0.4 l=0.06 nfing=1 sense=0 ngcon=1 m=1 
+ accurateFlow=0
XM2 Out A gnd gnd nlvtlp w=0.4 l=0.06 nfing=1 sense=0 ngcon=1 m=1 
+ accurateFlow=0
XM1 Out B net012 net012 plvtlp w=0.81 l=0.06 nfing=1 sense=0 ngcon=1 m=1 
+ accurateFlow=0
XM0 net012 A Vdd Vdd plvtlp w=0.81 l=0.06 nfing=1 sense=0 ngcon=1 m=1 
+ accurateFlow=0
.ENDS

************************************************************************
* Library Name: ChaCha20
* Cell Name:    and
* View Name:    schematic
************************************************************************

.SUBCKT and A B Out Vdd gnd
*.PININFO A:I B:I Vdd:I gnd:I Out:O
XM5 Out net29 gnd gnd nlvtlp w=0.405 l=0.06 nfing=1 sense=0 ngcon=1 m=1 
+ accurateFlow=0
XM0 net30 A gnd gnd nlvtlp w=0.405 l=0.06 nfing=1 sense=0 ngcon=1 m=1 
+ accurateFlow=0
XM1 net29 B net30 gnd nlvtlp w=0.405 l=0.06 nfing=1 sense=0 ngcon=1 m=1 
+ accurateFlow=0
XM2 net29 A Vdd Vdd plvtlp w=0.81 l=0.06 nfing=1 sense=0 ngcon=1 m=1 
+ accurateFlow=0
XM3 net29 B Vdd Vdd plvtlp w=0.81 l=0.06 nfing=1 sense=0 ngcon=1 m=1 
+ accurateFlow=0
XM4 Out net29 Vdd Vdd plvtlp w=0.81 l=0.06 nfing=1 sense=0 ngcon=1 m=1 
+ accurateFlow=0
.ENDS

************************************************************************
* Library Name: In_Memory_Add
* Cell Name:    or
* View Name:    schematic
************************************************************************

.SUBCKT or A B Out Vdd gnd
*.PININFO A:I B:I Vdd:I gnd:I Out:O
XM5 Out net14 gnd gnd nlvtlp w=0.4 l=0.06 nfing=1 sense=0 ngcon=1 m=1 
+ accurateFlow=0
XM3 net14 B gnd gnd nlvtlp w=0.4 l=0.06 nfing=1 sense=0 ngcon=1 m=1 
+ accurateFlow=0
XM2 net14 A gnd gnd nlvtlp w=0.4 l=0.06 nfing=1 sense=0 ngcon=1 m=1 
+ accurateFlow=0
XM4 Out net14 Vdd Vdd plvtlp w=0.81 l=0.06 nfing=1 sense=0 ngcon=1 m=1 
+ accurateFlow=0
XM1 net14 B net015 net015 plvtlp w=0.81 l=0.06 nfing=1 sense=0 ngcon=1 m=1 
+ accurateFlow=0
XM0 net015 A Vdd Vdd plvtlp w=0.81 l=0.06 nfing=1 sense=0 ngcon=1 m=1 
+ accurateFlow=0
.ENDS

************************************************************************
* Library Name: In_Memory_Add
* Cell Name:    xor
* View Name:    schematic
************************************************************************

.SUBCKT xor A B Out Vdd gnd
*.PININFO A:I B:I Vdd:I gnd:I Out:O
XM12 net24 B gnd gnd nlvtlp w=0.4 l=0.06 nfing=1 sense=0 ngcon=1 m=1 
+ accurateFlow=0
XM3 net21 net13 gnd gnd nlvtlp w=0.4 l=0.06 nfing=1 sense=0 ngcon=1 m=1 
+ accurateFlow=0
XM2 Out net24 net21 net21 nlvtlp w=0.4 l=0.06 nfing=1 sense=0 ngcon=1 m=1 
+ accurateFlow=0
XM1 net15 B gnd gnd nlvtlp w=0.4 l=0.06 nfing=1 sense=0 ngcon=1 m=1 
+ accurateFlow=0
XM0 Out A net15 net15 nlvtlp w=0.4 l=0.06 nfing=1 sense=0 ngcon=1 m=1 
+ accurateFlow=0
XM8 net13 A gnd gnd nlvtlp w=0.4 l=0.06 nfing=1 sense=0 ngcon=1 m=1 
+ accurateFlow=0
XM13 net24 B Vdd Vdd plvtlp w=0.81 l=0.06 nfing=1 sense=0 ngcon=1 m=1 
+ accurateFlow=0
XM9 net13 A Vdd Vdd plvtlp w=0.81 l=0.06 nfing=1 sense=0 ngcon=1 m=1 
+ accurateFlow=0
XM7 Out net24 net22 net22 plvtlp w=0.81 l=0.06 nfing=1 sense=0 ngcon=1 m=1 
+ accurateFlow=0
XM6 net22 A Vdd Vdd plvtlp w=0.81 l=0.06 nfing=1 sense=0 ngcon=1 m=1 
+ accurateFlow=0
XM5 Out B net16 net16 plvtlp w=0.81 l=0.06 nfing=1 sense=0 ngcon=1 m=1 
+ accurateFlow=0
XM4 net16 net13 Vdd Vdd plvtlp w=0.81 l=0.06 nfing=1 sense=0 ngcon=1 m=1 
+ accurateFlow=0
.ENDS

************************************************************************
* Library Name: Carry_Select_Adder
* Cell Name:    CSA
* View Name:    schematic
************************************************************************

.SUBCKT CSA A_xor_B AandB AnorB Cin Cout Sum Tcalc Vdd gnd
*.PININFO AandB:I AnorB:I Cin:I Tcalc:I Vdd:I gnd:I A_xor_B:O Cout:O Sum:O
XI0 AnorB AandB A_xor_B Vdd gnd nor
XI7 AandB Tcalc net08 Vdd gnd and
XI1 A_xor_B net08 net17 Vdd gnd or
XI4 A_xor_B Cin Sum Vdd gnd xor
XI6 net08 net17 Cin Vdd Cout gnd MUX2_1_Real
.ENDS

************************************************************************
* Library Name: BitCell
* Cell Name:    clocked_or
* View Name:    schematic
************************************************************************

.SUBCKT clocked_or A B Out Vdd clk gnd
*.PININFO A:I B:I Vdd:I clk:I gnd:I Out:O
XM10 net14 A net022 gnd nlvtlp w=0.27 l=0.06 nfing=1 sense=0 ngcon=1 m=1 
+ accurateFlow=0
XM5 Out net14 gnd gnd nlvtlp w=0.27 l=0.06 nfing=1 sense=0 ngcon=1 m=1 
+ accurateFlow=0
XM3 net14 B net022 gnd nlvtlp w=0.27 l=0.06 nfing=1 sense=0 ngcon=1 m=1 
+ accurateFlow=0
XM7 net022 clk gnd gnd nlvtlp w=0.27 l=0.06 nfing=1 sense=0 ngcon=1 m=1 
+ accurateFlow=0
XM4 Out net14 Vdd Vdd plvtlp w=0.54 l=0.06 nfing=1 sense=0 ngcon=1 m=1 
+ accurateFlow=0
XM0 net14 clk Vdd Vdd plvtlp w=0.54 l=0.06 nfing=1 sense=0 ngcon=1 m=1 
+ accurateFlow=0
.ENDS

************************************************************************
* Library Name: BitCell
* Cell Name:    Clocked_decoder_read
* View Name:    schematic
************************************************************************

.SUBCKT Clocked_decoder_read A0 A1 EN Vdd WL0 WL1 WL2 WL3 clk gnd row0_onB 
+ row2_onB
*.PININFO A0:I A1:I EN:I Vdd:I clk:I gnd:I row0_onB:I row2_onB:I WL0:O WL1:O 
*.PININFO WL2:O WL3:O
XM27 net025 EN gnd gnd nlvtlp w=0.4 l=0.06 nfing=1 sense=0 ngcon=1 m=1 
+ accurateFlow=0
XM24 net027 EN gnd gnd nlvtlp w=0.4 l=0.06 nfing=1 sense=0 ngcon=1 m=1 
+ accurateFlow=0
XM25 net026 EN gnd gnd nlvtlp w=0.4 l=0.06 nfing=1 sense=0 ngcon=1 m=1 
+ accurateFlow=0
XM26 net024 EN gnd gnd nlvtlp w=0.4 l=0.06 nfing=1 sense=0 ngcon=1 m=1 
+ accurateFlow=0
XM15 net046 A1 net30 net30 nlvtlp w=0.4 l=0.06 nfing=1 sense=0 ngcon=1 m=1 
+ accurateFlow=0
XM14 net18 A0 net026 net026 nlvtlp w=0.4 l=0.06 nfing=1 sense=0 ngcon=1 m=1 
+ accurateFlow=0
XM13 net050 net029 net019 net019 nlvtlp w=0.4 l=0.06 nfing=1 sense=0 ngcon=1 
+ m=1 accurateFlow=0
XM12 net019 net010 net027 net027 nlvtlp w=0.4 l=0.06 nfing=1 sense=0 ngcon=1 
+ m=1 accurateFlow=0
XM3 net047 net029 net18 net18 nlvtlp w=0.4 l=0.06 nfing=1 sense=0 ngcon=1 m=1 
+ accurateFlow=0
XM2 net30 net010 net025 net025 nlvtlp w=0.4 l=0.06 nfing=1 sense=0 ngcon=1 m=1 
+ accurateFlow=0
XM1 net036 A1 net20 net20 nlvtlp w=0.4 l=0.06 nfing=1 sense=0 ngcon=1 m=1 
+ accurateFlow=0
XM0 net20 A0 net024 net024 nlvtlp w=0.4 l=0.06 nfing=1 sense=0 ngcon=1 m=1 
+ accurateFlow=0
XM11 Vdd clk net036 net036 plvtlp w=0.81 l=0.06 nfing=1 sense=0 ngcon=1 m=1 
+ accurateFlow=0
XM6 Vdd clk net050 net050 plvtlp w=0.81 l=0.06 nfing=1 sense=0 ngcon=1 m=1 
+ accurateFlow=0
XM4 Vdd clk net046 net046 plvtlp w=0.81 l=0.06 nfing=1 sense=0 ngcon=1 m=1 
+ accurateFlow=0
XM5 Vdd clk net047 net047 plvtlp w=0.81 l=0.06 nfing=1 sense=0 ngcon=1 m=1 
+ accurateFlow=0
XI23 Vdd A0 net010 gnd NOT
XI22 Vdd A1 net029 gnd NOT
XI14 Vdd net036 WL3 gnd NOT_schematic
XI13 Vdd net046 net048 gnd NOT_schematic
XI12 Vdd net047 WL1 gnd NOT_schematic
XI11 Vdd net050 net049 gnd NOT_schematic
XI20 net048 row2_onB WL2 Vdd clk gnd clocked_or
XI21 net049 row0_onB WL0 Vdd clk gnd clocked_or
.ENDS

************************************************************************
* Library Name: ChaCha20
* Cell Name:    Array128_4
* View Name:    schematic
************************************************************************

.SUBCKT Array128_4 Calc_en Cout IN0 IN1 IN2 IN3 IN4 IN5 IN6 IN7 IN8 IN9 IN10 
+ IN11 IN12 IN13 IN14 IN15 IN16 IN17 IN18 IN19 IN20 IN21 IN22 IN23 IN24 IN25 
+ IN26 IN27 IN28 IN29 IN30 IN31 IN32 IN33 IN34 IN35 IN36 IN37 IN38 IN39 IN40 
+ IN41 IN42 IN43 IN44 IN45 IN46 IN47 IN48 IN49 IN50 IN51 IN52 IN53 IN54 IN55 
+ IN56 IN57 IN58 IN59 IN60 IN61 IN62 IN63 IN64 IN65 IN66 IN67 IN68 IN69 IN70 
+ IN71 IN72 IN73 IN74 IN75 IN76 IN77 IN78 IN79 IN80 IN81 IN82 IN83 IN84 IN85 
+ IN86 IN87 IN88 IN89 IN90 IN91 IN92 IN93 IN94 IN95 IN96 IN97 IN98 IN99 IN100 
+ IN101 IN102 IN103 IN104 IN105 IN106 IN107 IN108 IN109 IN110 IN111 IN112 
+ IN113 IN114 IN115 IN116 IN117 IN118 IN119 IN120 IN121 IN122 IN123 IN124 
+ IN125 IN126 IN127 MUX_SEL0 MUX_SEL1 MUX_SEL2 PreCh RBL0 RBL1 RBLB0 RBLB1 
+ RWL0 RWL1 RWL_en Row0sel Row1sel Row2sel Row3sel SAen Sout0 SoutB0 Vdd WBL0 
+ WBL1 WBLB0 WBLB1 WL0_sel WL1_sel WL2_sel WL3_sel WWL0 WWL1 WWL_en Wrdv_in0 
+ clk gnd mem0_0 mem0_1 mem0_2 mem0_3 mem0_4 mem0_5 mem0_6 mem0_7 mem0_8 
+ mem0_9 mem0_10 mem0_11 mem0_12 mem0_13 mem0_14 mem0_15 mem0_16 mem0_17 
+ mem0_18 mem0_19 mem0_20 mem0_21 mem0_22 mem0_23 mem0_24 mem0_25 mem0_26 
+ mem0_27 mem0_28 mem0_29 mem0_30 mem0_31 mem1_0 mem1_1 mem1_2 mem1_3 mem1_4 
+ mem1_5 mem1_6 mem1_7 mem1_8 mem1_9 mem1_10 mem1_11 mem1_12 mem1_13 mem1_14 
+ mem1_15 mem1_16 mem1_17 mem1_18 mem1_19 mem1_20 mem1_21 mem1_22 mem1_23 
+ mem1_24 mem1_25 mem1_26 mem1_27 mem1_28 mem1_29 mem1_30 mem1_31 mem2_0 
+ mem2_1 mem2_2 mem2_3 mem2_4 mem2_5 mem2_6 mem2_7 mem2_8 mem2_9 mem2_10 
+ mem2_11 mem2_12 mem2_13 mem2_14 mem2_15 mem2_16 mem2_17 mem2_18 mem2_19 
+ mem2_20 mem2_21 mem2_22 mem2_23 mem2_24 mem2_25 mem2_26 mem2_27 mem2_28 
+ mem2_29 mem2_30 mem2_31 mem3_0 mem3_1 mem3_2 mem3_3 mem3_4 mem3_5 mem3_6 
+ mem3_7 mem3_8 mem3_9 mem3_10 mem3_11 mem3_12 mem3_13 mem3_14 mem3_15 mem3_16 
+ mem3_17 mem3_18 mem3_19 mem3_20 mem3_21 mem3_22 mem3_23 mem3_24 mem3_25 
+ mem3_26 mem3_27 mem3_28 mem3_29 mem3_30 mem3_31 memB0_0 memB0_1 memB0_2 
+ memB0_3 memB0_4 memB0_5 memB0_6 memB0_7 memB0_8 memB0_9 memB0_10 memB0_11 
+ memB0_12 memB0_13 memB0_14 memB0_15 memB0_16 memB0_17 memB0_18 memB0_19 
+ memB0_20 memB0_21 memB0_22 memB0_23 memB0_24 memB0_25 memB0_26 memB0_27 
+ memB0_28 memB0_29 memB0_30 memB0_31 memB1_0 memB1_1 memB1_2 memB1_3 memB1_4 
+ memB1_5 memB1_6 memB1_7 memB1_8 memB1_9 memB1_10 memB1_11 memB1_12 memB1_13 
+ memB1_14 memB1_15 memB1_16 memB1_17 memB1_18 memB1_19 memB1_20 memB1_21 
+ memB1_22 memB1_23 memB1_24 memB1_25 memB1_26 memB1_27 memB1_28 memB1_29 
+ memB1_30 memB1_31 memB2_0 memB2_1 memB2_2 memB2_3 memB2_4 memB2_5 memB2_6 
+ memB2_7 memB2_8 memB2_9 memB2_10 memB2_11 memB2_12 memB2_13 memB2_14 
+ memB2_15 memB2_16 memB2_17 memB2_18 memB2_19 memB2_20 memB2_21 memB2_22 
+ memB2_23 memB2_24 memB2_25 memB2_26 memB2_27 memB2_28 memB2_29 memB2_30 
+ memB2_31 memB3_0 memB3_1 memB3_2 memB3_3 memB3_4 memB3_5 memB3_6 memB3_7 
+ memB3_8 memB3_9 memB3_10 memB3_11 memB3_12 memB3_13 memB3_14 memB3_15 
+ memB3_16 memB3_17 memB3_18 memB3_19 memB3_20 memB3_21 memB3_22 memB3_23 
+ memB3_24 memB3_25 memB3_26 memB3_27 memB3_28 memB3_29 memB3_30 memB3_31 
+ row0_rwl row2_rwl w_en wr_en0 write1
*.PININFO Calc_en:I MUX_SEL0:I MUX_SEL1:I MUX_SEL2:I PreCh:I RWL0:I RWL1:I 
*.PININFO RWL_en:I SAen:I Vdd:I WWL0:I WWL1:I WWL_en:I clk:I gnd:I row0_rwl:I 
*.PININFO row2_rwl:I w_en:I Cout:O mem0_0:O mem0_1:O mem0_2:O mem0_3:O 
*.PININFO mem0_4:O mem0_5:O mem0_6:O mem0_7:O mem0_8:O mem0_9:O mem0_10:O 
*.PININFO mem0_11:O mem0_12:O mem0_13:O mem0_14:O mem0_15:O mem0_16:O 
*.PININFO mem0_17:O mem0_18:O mem0_19:O mem0_20:O mem0_21:O mem0_22:O 
*.PININFO mem0_23:O mem0_24:O mem0_25:O mem0_26:O mem0_27:O mem0_28:O 
*.PININFO mem0_29:O mem0_30:O mem0_31:O mem1_0:O mem1_1:O mem1_2:O mem1_3:O 
*.PININFO mem1_4:O mem1_5:O mem1_6:O mem1_7:O mem1_8:O mem1_9:O mem1_10:O 
*.PININFO mem1_11:O mem1_12:O mem1_13:O mem1_14:O mem1_15:O mem1_16:O 
*.PININFO mem1_17:O mem1_18:O mem1_19:O mem1_20:O mem1_21:O mem1_22:O 
*.PININFO mem1_23:O mem1_24:O mem1_25:O mem1_26:O mem1_27:O mem1_28:O 
*.PININFO mem1_29:O mem1_30:O mem1_31:O mem2_0:O mem2_1:O mem2_2:O mem2_3:O 
*.PININFO mem2_4:O mem2_5:O mem2_6:O mem2_7:O mem2_8:O mem2_9:O mem2_10:O 
*.PININFO mem2_11:O mem2_12:O mem2_13:O mem2_14:O mem2_15:O mem2_16:O 
*.PININFO mem2_17:O mem2_18:O mem2_19:O mem2_20:O mem2_21:O mem2_22:O 
*.PININFO mem2_23:O mem2_24:O mem2_25:O mem2_26:O mem2_27:O mem2_28:O 
*.PININFO mem2_29:O mem2_30:O mem2_31:O mem3_0:O mem3_1:O mem3_2:O mem3_3:O 
*.PININFO mem3_4:O mem3_5:O mem3_6:O mem3_7:O mem3_8:O mem3_9:O mem3_10:O 
*.PININFO mem3_11:O mem3_12:O mem3_13:O mem3_14:O mem3_15:O mem3_16:O 
*.PININFO mem3_17:O mem3_18:O mem3_19:O mem3_20:O mem3_21:O mem3_22:O 
*.PININFO mem3_23:O mem3_24:O mem3_25:O mem3_26:O mem3_27:O mem3_28:O 
*.PININFO mem3_29:O mem3_30:O mem3_31:O memB0_0:O memB0_1:O memB0_2:O 
*.PININFO memB0_3:O memB0_4:O memB0_5:O memB0_6:O memB0_7:O memB0_8:O 
*.PININFO memB0_9:O memB0_10:O memB0_11:O memB0_12:O memB0_13:O memB0_14:O 
*.PININFO memB0_15:O memB0_16:O memB0_17:O memB0_18:O memB0_19:O memB0_20:O 
*.PININFO memB0_21:O memB0_22:O memB0_23:O memB0_24:O memB0_25:O memB0_26:O 
*.PININFO memB0_27:O memB0_28:O memB0_29:O memB0_30:O memB0_31:O memB1_0:O 
*.PININFO memB1_1:O memB1_2:O memB1_3:O memB1_4:O memB1_5:O memB1_6:O 
*.PININFO memB1_7:O memB1_8:O memB1_9:O memB1_10:O memB1_11:O memB1_12:O 
*.PININFO memB1_13:O memB1_14:O memB1_15:O memB1_16:O memB1_17:O memB1_18:O 
*.PININFO memB1_19:O memB1_20:O memB1_21:O memB1_22:O memB1_23:O memB1_24:O 
*.PININFO memB1_25:O memB1_26:O memB1_27:O memB1_28:O memB1_29:O memB1_30:O 
*.PININFO memB1_31:O memB2_0:O memB2_1:O memB2_2:O memB2_3:O memB2_4:O 
*.PININFO memB2_5:O memB2_6:O memB2_7:O memB2_8:O memB2_9:O memB2_10:O 
*.PININFO memB2_11:O memB2_12:O memB2_13:O memB2_14:O memB2_15:O memB2_16:O 
*.PININFO memB2_17:O memB2_18:O memB2_19:O memB2_20:O memB2_21:O memB2_22:O 
*.PININFO memB2_23:O memB2_24:O memB2_25:O memB2_26:O memB2_27:O memB2_28:O 
*.PININFO memB2_29:O memB2_30:O memB2_31:O memB3_0:O memB3_1:O memB3_2:O 
*.PININFO memB3_3:O memB3_4:O memB3_5:O memB3_6:O memB3_7:O memB3_8:O 
*.PININFO memB3_9:O memB3_10:O memB3_11:O memB3_12:O memB3_13:O memB3_14:O 
*.PININFO memB3_15:O memB3_16:O memB3_17:O memB3_18:O memB3_19:O memB3_20:O 
*.PININFO memB3_21:O memB3_22:O memB3_23:O memB3_24:O memB3_25:O memB3_26:O 
*.PININFO memB3_27:O memB3_28:O memB3_29:O memB3_30:O memB3_31:O IN0:B IN1:B 
*.PININFO IN2:B IN3:B IN4:B IN5:B IN6:B IN7:B IN8:B IN9:B IN10:B IN11:B IN12:B 
*.PININFO IN13:B IN14:B IN15:B IN16:B IN17:B IN18:B IN19:B IN20:B IN21:B 
*.PININFO IN22:B IN23:B IN24:B IN25:B IN26:B IN27:B IN28:B IN29:B IN30:B 
*.PININFO IN31:B IN32:B IN33:B IN34:B IN35:B IN36:B IN37:B IN38:B IN39:B 
*.PININFO IN40:B IN41:B IN42:B IN43:B IN44:B IN45:B IN46:B IN47:B IN48:B 
*.PININFO IN49:B IN50:B IN51:B IN52:B IN53:B IN54:B IN55:B IN56:B IN57:B 
*.PININFO IN58:B IN59:B IN60:B IN61:B IN62:B IN63:B IN64:B IN65:B IN66:B 
*.PININFO IN67:B IN68:B IN69:B IN70:B IN71:B IN72:B IN73:B IN74:B IN75:B 
*.PININFO IN76:B IN77:B IN78:B IN79:B IN80:B IN81:B IN82:B IN83:B IN84:B 
*.PININFO IN85:B IN86:B IN87:B IN88:B IN89:B IN90:B IN91:B IN92:B IN93:B 
*.PININFO IN94:B IN95:B IN96:B IN97:B IN98:B IN99:B IN100:B IN101:B IN102:B 
*.PININFO IN103:B IN104:B IN105:B IN106:B IN107:B IN108:B IN109:B IN110:B 
*.PININFO IN111:B IN112:B IN113:B IN114:B IN115:B IN116:B IN117:B IN118:B 
*.PININFO IN119:B IN120:B IN121:B IN122:B IN123:B IN124:B IN125:B IN126:B 
*.PININFO IN127:B RBL0:B RBL1:B RBLB0:B RBLB1:B Row0sel:B Row1sel:B Row2sel:B 
*.PININFO Row3sel:B Sout0:B SoutB0:B WBL0:B WBL1:B WBLB0:B WBLB1:B WL0_sel:B 
*.PININFO WL1_sel:B WL2_sel:B WL3_sel:B Wrdv_in0:B wr_en0:B write1:B
XI29 RBL0 RBLB0 Row3sel Row3sel WBL0 WBLB0 gnd mem3_0 memB3_0 Vdd WL3_sel 
+ sram_10t
XI28 RBL0 RBLB0 Row2sel Row2sel WBL0 WBLB0 gnd mem2_0 memB2_0 Vdd WL2_sel 
+ sram_10t
XI21 RBL0 RBLB0 Row1sel Row1sel WBL0 WBLB0 gnd mem1_0 memB1_0 Vdd WL1_sel 
+ sram_10t
XI17 RBL0 RBLB0 Row0sel Row0sel WBL0 WBLB0 gnd mem0_0 memB0_0 Vdd WL0_sel 
+ sram_10t
XI67 RBL1 RBLB1 Row2sel Row2sel WBL1 WBLB1 gnd mem2_1 memB2_1 Vdd WL2_sel 
+ sram_10t
XI66 RBL1 RBLB1 Row3sel Row3sel WBL1 WBLB1 gnd mem3_1 memB3_1 Vdd WL3_sel 
+ sram_10t
XI68 RBL1 RBLB1 Row1sel Row1sel WBL1 WBLB1 gnd mem1_1 memB1_1 Vdd WL1_sel 
+ sram_10t
XI69 RBL1 RBLB1 Row0sel Row0sel WBL1 WBLB1 gnd mem0_1 memB0_1 Vdd WL0_sel 
+ sram_10t
XI75 net4145 net3645 Row3sel Row3sel net4109 net3643 gnd mem3_2 memB3_2 Vdd 
+ WL3_sel sram_10t
XI76 net4145 net3645 Row2sel Row2sel net4109 net3643 gnd mem2_2 memB2_2 Vdd 
+ WL2_sel sram_10t
XI77 net4145 net3645 Row1sel Row1sel net4109 net3643 gnd mem1_2 memB1_2 Vdd 
+ WL1_sel sram_10t
XI78 net4145 net3645 Row0sel Row0sel net4109 net3643 gnd mem0_2 memB0_2 Vdd 
+ WL0_sel sram_10t
XI89 net4166 net3649 Row3sel Row3sel net4116 net3647 gnd mem3_3 memB3_3 Vdd 
+ WL3_sel sram_10t
XI90 net4166 net3649 Row2sel Row2sel net4116 net3647 gnd mem2_3 memB2_3 Vdd 
+ WL2_sel sram_10t
XI91 net4166 net3649 Row1sel Row1sel net4116 net3647 gnd mem1_3 memB1_3 Vdd 
+ WL1_sel sram_10t
XI92 net4166 net3649 Row0sel Row0sel net4116 net3647 gnd mem0_3 memB0_3 Vdd 
+ WL0_sel sram_10t
XI113 net4149 net3653 Row3sel Row3sel net4120 net3651 gnd mem3_4 memB3_4 Vdd 
+ WL3_sel sram_10t
XI114 net4149 net3653 Row2sel Row2sel net4120 net3651 gnd mem2_4 memB2_4 Vdd 
+ WL2_sel sram_10t
XI115 net4141 net3657 Row3sel Row3sel net4126 net3655 gnd mem3_5 memB3_5 Vdd 
+ WL3_sel sram_10t
XI116 net4141 net3657 Row2sel Row2sel net4126 net3655 gnd mem2_5 memB2_5 Vdd 
+ WL2_sel sram_10t
XI117 net4122 net3661 Row3sel Row3sel net4128 net3659 gnd mem3_6 memB3_6 Vdd 
+ WL3_sel sram_10t
XI118 net4122 net3661 Row2sel Row2sel net4128 net3659 gnd mem2_6 memB2_6 Vdd 
+ WL2_sel sram_10t
XI119 net4139 net3665 Row3sel Row3sel net4135 net3663 gnd mem3_7 memB3_7 Vdd 
+ WL3_sel sram_10t
XI120 net4139 net3665 Row2sel Row2sel net4135 net3663 gnd mem2_7 memB2_7 Vdd 
+ WL2_sel sram_10t
XI121 net4149 net3653 Row1sel Row1sel net4120 net3651 gnd mem1_4 memB1_4 Vdd 
+ WL1_sel sram_10t
XI122 net4149 net3653 Row0sel Row0sel net4120 net3651 gnd mem0_4 memB0_4 Vdd 
+ WL0_sel sram_10t
XI123 net4141 net3657 Row1sel Row1sel net4126 net3655 gnd mem1_5 memB1_5 Vdd 
+ WL1_sel sram_10t
XI124 net4141 net3657 Row0sel Row0sel net4126 net3655 gnd mem0_5 memB0_5 Vdd 
+ WL0_sel sram_10t
XI125 net4122 net3661 Row1sel Row1sel net4128 net3659 gnd mem1_6 memB1_6 Vdd 
+ WL1_sel sram_10t
XI126 net4122 net3661 Row0sel Row0sel net4128 net3659 gnd mem0_6 memB0_6 Vdd 
+ WL0_sel sram_10t
XI127 net4139 net3665 Row1sel Row1sel net4135 net3663 gnd mem1_7 memB1_7 Vdd 
+ WL1_sel sram_10t
XI128 net4139 net3665 Row0sel Row0sel net4135 net3663 gnd mem0_7 memB0_7 Vdd 
+ WL0_sel sram_10t
XI172 net4163 net3669 Row3sel Row3sel net4153 net3667 gnd mem3_8 memB3_8 Vdd 
+ WL3_sel sram_10t
XI173 net4163 net3669 Row2sel Row2sel net4153 net3667 gnd mem2_8 memB2_8 Vdd 
+ WL2_sel sram_10t